// Generated for: spectre
// Generated on: Nov 21 09:15:02 2025
// Design library name: LAB4
// Design cell name: Shunt_bias4
// Design view name: schematic
simulator lang=spectre
global 0
