// Generated for: spectre
// Design Netlist Generated on: Nov 12 10:06:24 2025
// Design library name: DAY5
// Design cell name: NOISE_NMOS
// Design view name: schematic
simulator lang=spectre
global 0
