// Generated for: spectre
// Generated on: Nov 21 06:29:30 2025
// Design library name: LAB4
// Design cell name: Shunt_bias3
// Design view name: schematic
simulator lang=spectre
global 0
