simulator lang=spectre
include "mosvc.scs"
include "nel.scs"
include "pel.scs"
