// Generated for: spectre
// Generated on: Nov 14 12:22:36 2025
// Design library name: DAY7
// Design cell name: ex1
// Design view name: schematic
simulator lang=spectre
global 0
