// Generated for: spectre
// Generated on: Nov 21 09:41:32 2025
// Design library name: LAB4
// Design cell name: Shunt_bias7
// Design view name: schematic
simulator lang=spectre
global 0
