// Generated for: spectre
// Generated on: Nov  8 02:46:17 2025
// Design library name: LAB1
// Design cell name: SELF_CMOS
// Design view name: schematic
simulator lang=spectre
global 0
