// Generated for: spectre
// Design Netlist Generated on: Nov 14 14:41:34 2025
// Design library name: DAY7
// Design cell name: ex1_small_signal_no_bias_pole_zero_cancel
// Design view name: schematic
simulator lang=spectre
global 0
