// Generated for: spectre
// Design Netlist Generated on: Nov 17 13:30:21 2025
// Design library name: DAY6
// Design cell name: ex3
// Design view name: schematic
simulator lang=spectre
global 0
