// Generated for: spectre
// Design Netlist Generated on: Nov 17 11:38:32 2025
// Design library name: DAY6
// Design cell name: ex1
// Design view name: schematic
simulator lang=spectre
global 0
