// Generated for: spectre
// Generated on: May  3 21:58:32 2025
// Design library name: DAY7
// Design cell name: ex1_small_signal
// Design view name: schematic
simulator lang=spectre
global 0
