// Generated for: spectre
// Design Netlist Generated on: May  3 00:59:27 2025
// Design library name: DAY7
// Design cell name: ex1_small_signal_no_bias
// Design view name: schematic
simulator lang=spectre
global 0
