// Generated for: spectre
// Design Netlist Generated on: Nov 14 12:17:13 2025
// Design library name: DAY7
// Design cell name: ex1_small_signal_no_bias
// Design view name: schematic
simulator lang=spectre
global 0
