// Generated for: spectre
// Generated on: Nov 21 06:20:43 2025
// Design library name: LAB4
// Design cell name: Shunt_bias2
// Design view name: schematic
simulator lang=spectre
global 0
