// Generated for: spectre
// Design Netlist Generated on: Nov 21 05:56:14 2025
// Design library name: LAB3
// Design cell name: Shunt
// Design view name: schematic
simulator lang=spectre
global 0
