// Generated for: spectre
// Generated on: Nov 17 08:03:47 2025
// Design library name: DAY8
// Design cell name: trans_bias4_corrected
// Design view name: schematic
simulator lang=spectre
global 0
