// Generated for: spectre
// Generated on: Nov 21 09:22:54 2025
// Design library name: LAB4
// Design cell name: Shunt_bias6
// Design view name: schematic
simulator lang=spectre
global 0
