// Generated for: spectre
// Generated on: Nov 12 13:43:43 2025
// Design library name: LAB1
// Design cell name: GM_ID
// Design view name: schematic
simulator lang=spectre
global 0
