// Generated for: spectre
// Generated on: Nov 21 12:25:13 2025
// Design library name: LAB4
// Design cell name: Shunt_bias8
// Design view name: schematic
simulator lang=spectre
global 0
