// Generated for: spectre
// Design Netlist Generated on: Nov 17 13:58:33 2025
// Design library name: DAY6
// Design cell name: ex1
// Design view name: schematic
simulator lang=spectre
global 0
