// Generated for: spectre
// Design Netlist Generated on: Nov 11 14:05:41 2025
// Design library name: DAY5
// Design cell name: EXAMPLE
// Design view name: schematic
simulator lang=spectre
global 0
