// Generated for: spectre
// Generated on: Nov 21 06:01:56 2025
// Design library name: LAB4
// Design cell name: Shunt_bias1
// Design view name: schematic
simulator lang=spectre
global 0
