***SUBCKT-DEFINITIONS***
.SUBCKT MOSVC G NW SB
.ENDS
